data_matlab_gen

_audit_creation_date     19-Mar-2024 10:15:28
_audit_creation_method   generated by the Matlab ATOM scripts

_cell_length_a             5.1600
_cell_length_b             8.9660
_cell_length_c            19.3210
_cell_angle_alpha         90.0000
_cell_angle_beta         100.4600
_cell_angle_gamma         90.0000
_cell_volume             879.0230

_symmetry_cell_setting          triclinic
_symmetry_space_group_name_Hall 'P 1'
_symmetry_space_group_name_H-M  'P 1'
_symmetry_Int_Tables_number     1

_symmetry_equiv_pos_as_xyz 'x,y,z'

loop_
_atom_site_label
_atom_site_type_symbol
_atom_site_fract_x
_atom_site_fract_y
_atom_site_fract_z
_atom_site_occupancy
Al         Al         0.4997000     0.1671000     0.9999000     1.00000
Si         Si         0.7450000     0.9972000     0.1411000     1.00000
Si         Si         0.7595000     0.3260000     0.1414000     1.00000
O          O          0.6496000     0.0019000     0.0558000     1.00000
O          O          0.7315000     0.3081000     0.0560000     1.00000
Oh         O          0.2263000     0.1927000     0.0523000     1.00000
O          O          0.0498000     0.3894000     0.1736000     1.00000
O          O          0.7253000     0.1641000     0.1734000     1.00000
O          O          0.5452000     0.4429000     0.1608000     1.00000
H          H          0.1121000     0.1365000     0.0792000     1.00000
Al         Al         0.5005000     0.8329000     0.0001000     1.00000
Si         Si         0.2550000     0.0028000     0.8589000     1.00000
Si         Si         0.2404000     0.6740000     0.8586000     1.00000
O          O          0.3504000     0.9981000     0.9442000     1.00000
O          O          0.2685000     0.6919000     0.9440000     1.00000
Oh         O          0.7739000     0.8073000     0.9477000     1.00000
O          O          0.9502000     0.6105000     0.8264000     1.00000
O          O          0.2751000     0.8359000     0.8266000     1.00000
O          O          0.4548000     0.5571000     0.8392000     1.00000
H          H          0.8874000     0.8625000     0.9203000     1.00000
Mg         Mg         0.9995000     0.6671000     0.9999000     1.00000
Si         Si         0.2450000     0.4972000     0.1411000     1.00000
Si         Si         0.2595000     0.8260000     0.1414000     1.00000
O          O          0.1496000     0.5019000     0.0558000     1.00000
O          O          0.2313000     0.8079000     0.0560000     1.00000
Oh         O          0.7263000     0.6927000     0.0523000     1.00000
O          O          0.5498000     0.8894000     0.1736000     1.00000
O          O          0.2253000     0.6640000     0.1734000     1.00000
O          O          0.0452000     0.9429000     0.1608000     1.00000
H          H          0.7619000     0.6463000     0.0991000     1.00000
Al         Al         0.0005000     0.3329000     0.0001000     1.00000
Si         Si         0.7552000     0.5028000     0.8589000     1.00000
Si         Si         0.7404000     0.1740000     0.8586000     1.00000
O          O          0.8506000     0.4981000     0.9442000     1.00000
O          O          0.7685000     0.1919000     0.9440000     1.00000
Oh         O          0.2739000     0.3073000     0.9477000     1.00000
O          O          0.4502000     0.1106000     0.8264000     1.00000
O          O          0.7751000     0.3359000     0.8266000     1.00000
O          O          0.9548000     0.0571000     0.8392000     1.00000
H          H          0.2337000     0.3395000     0.8985000     1.00000
Na         Na         0.8199000     0.4804000     0.4768000     1.00000
Ow         O          0.8186000     0.0500000     0.5143000     1.00000
Hw         H          0.9854000     0.1068000     0.5188000     1.00000
Hw         H          0.6804000     0.1275000     0.5114000     1.00000
O          O          0.2168000     0.3611000     0.3609000     1.00000
H          H          0.3657000     0.3524000     0.4011000     1.00000
H          H          0.3021000     0.3731000     0.3193000     1.00000
O          O          0.7349000     0.6983000     0.3062000     1.00000
H          H          0.5730000     0.6402000     0.3077000     1.00000
H          H          0.7950000     0.6631000     0.2632000     1.00000
O          O          0.7219000     0.9282000     0.7338000     1.00000
H          H          0.9143000     0.9135000     0.7384000     1.00000
H          H          0.6499000     0.8261000     0.7354000     1.00000
Ow         O          0.8919000     0.7770000     0.5931000     1.00000
Hw         H          0.9344000     0.6711000     0.5859000     1.00000
Hw         H          0.6971000     0.7798000     0.5865000     1.00000
O          O          0.1284000     0.8697000     0.3314000     1.00000
H          H          0.2878000     0.9101000     0.3162000     1.00000
H          H          0.1204000     0.7643000     0.3159000     1.00000
O          O          0.8580000     0.1356000     0.6741000     1.00000
H          H          0.6736000     0.1468000     0.6810000     1.00000
H          H          0.9492000     0.2253000     0.6964000     1.00000
O          O          0.5566000     0.4678000     0.6631000     1.00000
H          H          0.6553000     0.5571000     0.6832000     1.00000
H          H          0.6317000     0.4437000     0.6208000     1.00000
O          O          0.1586000     0.9557000     0.5252000     1.00000
H          H          0.2363000     0.9377000     0.4828000     1.00000
H          H          0.0026000     0.8895000     0.5193000     1.00000
O          O          0.0640000     0.7262000     0.6606000     1.00000
H          H          0.2343000     0.7466000     0.6457000     1.00000
H          H          0.0832000     0.6240000     0.6803000     1.00000
Ow         O          0.1951000     0.2051000     0.5661000     1.00000
Hw         H          0.1306000     0.2739000     0.5993000     1.00000
Hw         H          0.2315000     0.2702000     0.5276000     1.00000
O          O          0.5233000     0.0565000     0.3217000     1.00000
H          H          0.7045000     0.0501000     0.3117000     1.00000
H          H          0.5477000     0.0864000     0.3717000     1.00000
O          O          0.7412000     0.9352000     0.4406000     1.00000
H          H          0.8448000     0.9421000     0.4023000     1.00000
H          H          0.6741000     0.8315000     0.4380000     1.00000
O          O          0.9458000     0.3674000     0.3417000     1.00000
H          H          0.7914000     0.3773000     0.3032000     1.00000
H          H          0.8773000     0.3131000     0.3791000     1.00000
O          O          0.3067000     0.5981000     0.4988000     1.00000
H          H          0.1543000     0.5778000     0.5220000     1.00000
H          H          0.2273000     0.6343000     0.4513000     1.00000


